/*--------------------------------*- C++ -*----------------------------------*\
  =========                 |
  \\      /  F ield         | OpenFOAM: The Open Source CFD Toolbox
   \\    /   O peration     | Website:  https://openfoam.org
    \\  /    A nd           | Version:  9
     \\/     M anipulation  |
\*---------------------------------------------------------------------------*/
FoamFile
{
    version     2.0;
    format      ascii;
    class       dictionary;
    location    "constant";
    object      thermophysicalProperties;
}
// * * * * * * * * * * * * * * * * * * * * * * * * * * * * * * * * * * * * * //
thermoType
{
    type            hePsiThermo;
    mixture         multiComponentMixture;
    transport       sutherland;
    thermo          janaf;
    energy          sensibleInternalEnergy;
    equationOfState perfectGas;
    specie          specie;
}

inertSpecie N2;

#include "$FOAM_CASE/constant/foam/species.foam"
#include "$FOAM_CASE/constant/foam/thermo.foam"

// ************************************************************************* //
